/*--------------------------------*- C++ -*----------------------------------*\
  =========                 |
  \\      /  F ield         | OpenFOAM: The Open Source CFD Toolbox
   \\    /   O peration     | Website:  https://openfoam.org
    \\  /    A nd           | Version:  9
     \\/     M anipulation  |
\*---------------------------------------------------------------------------*/
FoamFile
{
    version     2.0;
    format      ascii;
    class       volVectorField;
    location    "0/metalArea";
    object      U;
}
// * * * * * * * * * * * * * * * * * * * * * * * * * * * * * * * * * * * * * //

dimensions      [0 1 -1 0 0 0 0];

internalField		uniform (0 0 0);

boundaryField
{

    "(tankWall.*)"
    {
        type            noSlip;
    }

    "(front|back)"
    {
        type            wedge;
    }

    metalArea_to_hydrogenArea
    {
        type            zeroGradient;
    }
}


// ************************************************************************* //
