/*--------------------------------*- C++ -*----------------------------------*\
  =========                 |
  \\      /  F ield         | OpenFOAM: The Open Source CFD Toolbox
   \\    /   O peration     | Website:  https://openfoam.org
    \\  /    A nd           | Version:  8
     \\/     M anipulation  |
\*---------------------------------------------------------------------------*/
FoamFile
{
    version     2.0;
    format      ascii;
    class       polyBoundaryMesh;
    location    "constant/metalArea/polyMesh";
    object      boundary;
}
// * * * * * * * * * * * * * * * * * * * * * * * * * * * * * * * * * * * * * //

4
(
    front
    {
        type            wedge;
        inGroups        List<word> 1(wedge);
        nFaces          2400;
        startFace       4676;
    }
    back
    {
        type            wedge;
        inGroups        List<word> 1(wedge);
        nFaces          2400;
        startFace       7076;
    }
    tankWall
    {
        type            wall;
        inGroups        List<word> 1(wall);
        nFaces          124;
        startFace       9476;
    }
    metalArea_to_hydrogenArea
    {
        type            mappedWall;
        inGroups        List<word> 1(wall);
        nFaces          24;
        startFace       9600;
        sampleMode      nearestPatchFace;
        sampleRegion    hydrogenArea;
        samplePatch     hydrogenArea_to_metalArea;
    }
)

// ************************************************************************* //
